Version 4
SHEET 1 880 680
WIRE 240 80 224 80
WIRE 384 96 304 96
WIRE 432 96 384 96
WIRE 592 96 512 96
WIRE 64 112 -48 112
WIRE 240 112 208 112
WIRE 384 112 384 96
WIRE 592 112 592 96
WIRE 224 160 224 80
WIRE 224 160 160 160
WIRE 240 160 224 160
WIRE 688 192 592 192
WIRE 240 208 240 160
WIRE 256 208 240 208
WIRE 384 208 384 192
WIRE 384 208 336 208
WIRE 448 208 384 208
WIRE 448 272 448 208
WIRE 592 272 448 272
FLAG -48 192 0
FLAG 128 -48 0
FLAG 272 128 0
FLAG 272 -16 0
FLAG 160 384 0
FLAG 512 32 0
FLAG 592 416 0
FLAG 752 272 0
SYMBOL voltage -48 96 R0
WINDOW 123 0 0 Left 0
WINDOW 39 0 0 Left 0
SYMATTR InstName V1
SYMATTR Value SINE(0 0.1 100 0 0 0 20)
SYMBOL cap 128 96 R90
WINDOW 0 0 32 VBottom 2
WINDOW 3 32 32 VTop 2
SYMATTR InstName C1
SYMATTR Value 10n
SYMBOL res 112 16 R0
SYMATTR InstName R1
SYMATTR Value 1000k
SYMBOL voltage 128 48 R180
WINDOW 0 24 96 Left 2
WINDOW 3 24 16 Left 2
WINDOW 123 0 0 Left 0
WINDOW 39 0 0 Left 0
SYMATTR InstName V2
SYMATTR Value 4.9
SYMBOL Opamps\\TL072 272 32 R0
SYMATTR InstName U1
SYMBOL voltage 272 80 R180
WINDOW 0 24 96 Left 2
WINDOW 3 24 16 Left 2
WINDOW 123 0 0 Left 0
WINDOW 39 0 0 Left 0
SYMATTR InstName V3
SYMATTR Value 9
SYMBOL cap 144 160 R0
SYMATTR InstName C2
SYMATTR Value 10µ
SYMBOL res 144 208 R0
SYMATTR InstName R2
SYMATTR Value 220
SYMBOL res 144 288 R0
SYMATTR InstName R3
SYMATTR Value 500
SYMBOL res 368 96 R0
SYMATTR InstName R4
SYMATTR Value 10k
SYMBOL res 352 192 R90
WINDOW 0 0 56 VBottom 2
WINDOW 3 32 56 VTop 2
SYMATTR InstName R5
SYMATTR Value 100k
SYMBOL res 528 80 R90
WINDOW 0 0 56 VBottom 2
WINDOW 3 32 56 VTop 2
SYMATTR InstName R6
SYMATTR Value 10k
SYMBOL cap 496 32 R0
SYMATTR InstName C3
SYMATTR Value 22n
SYMBOL res 576 96 R0
SYMATTR InstName R7
SYMATTR Value 20k
SYMBOL res 576 176 R0
SYMATTR InstName R8
SYMATTR Value 27k
SYMBOL cap 576 272 R0
SYMATTR InstName C4
SYMATTR Value 82n
SYMBOL res 576 320 R0
SYMATTR InstName R9
SYMATTR Value 1k
SYMBOL cap 752 176 R90
WINDOW 0 0 32 VBottom 2
WINDOW 3 32 32 VTop 2
SYMATTR InstName C5
SYMATTR Value 47n
SYMBOL res 736 176 R0
SYMATTR InstName R10
SYMATTR Value 47k
SYMBOL res 224 96 R90
WINDOW 0 0 56 VBottom 2
WINDOW 3 32 56 VTop 2
SYMATTR InstName R11
SYMATTR Value 10k
TEXT -82 440 Left 2 !.tran 0.1
